Measured thermophysical data. Volumetric properties of glycerol + water mixtures at several temperatures and correlation with the Jouyban-Acree model
Source: 
Compound cw: water, , InChI=1S/H2O/h1H2
Compound cc: glycerol, , InChI=1S/C3H8O3/c4-1-3(6)2-5/h3-6H,1-2H2

System: water + glycerol
Property: Mass density, kg/m3; method: experiment
Temperature, K	Mole fraction of water	Mole fraction of glycerol	Mass density, kg/m3	uncertainty
288.15	1.0	0.0	999.13	
288.15	0.998	0.0020000000000000018	1001.55	
288.15	0.996	0.0040000000000000036	1003.9499999999999	
288.15	0.994	0.006000000000000005	1006.35	
288.15	0.9919	0.008099999999999996	1008.75	
288.15	0.9898	0.010199999999999987	1011.2	
288.15	0.9877	0.012299999999999978	1013.6	
288.15	0.9855	0.014499999999999957	1016.0	
288.15	0.9833	0.016700000000000048	1018.4	
288.15	0.981	0.019000000000000017	1020.85	
288.15	0.9787	0.021299999999999986	1023.25	
288.15	0.9764	0.023599999999999954	1025.75	
288.15	0.974	0.026000000000000023	1028.3	
288.15	0.9716	0.02839999999999998	1030.8	
288.15	0.9691	0.03090000000000004	1033.3000000000002	
288.15	0.9666	0.033399999999999985	1035.8	
288.15	0.9641	0.03590000000000004	1038.3500000000001	
288.15	0.9615	0.03849999999999998	1040.8500000000001	
288.15	0.9588	0.041200000000000014	1043.35	
288.15	0.9561	0.04390000000000005	1045.9	
288.15	0.9534	0.046599999999999975	1048.4	
288.15	0.9506	0.0494	1051.0	
288.15	0.9477	0.05230000000000001	1053.6499999999999	
288.15	0.9448	0.05520000000000003	1056.25	
288.15	0.9418	0.05820000000000003	1058.8500000000001	
288.15	0.9388	0.06120000000000003	1061.5	
288.15	0.9357	0.06430000000000002	1064.1000000000001	
288.15	0.9325	0.0675	1066.7	
288.15	0.9293	0.07069999999999999	1069.35	
288.15	0.926	0.07399999999999995	1071.95	
288.15	0.9226	0.07740000000000002	1074.55	
288.15	0.9192	0.08079999999999998	1077.25	
288.15	0.9157	0.08430000000000004	1079.95	
288.15	0.9121	0.08789999999999998	1082.6499999999999	
288.15	0.9085	0.09150000000000003	1085.3	
288.15	0.9047000000000001	0.09529999999999994	1088.0	
288.15	0.9009	0.09909999999999997	1090.7	
288.15	0.897	0.10299999999999998	1093.3999999999999	
288.15	0.8929	0.10709999999999997	1096.05	
288.15	0.8888	0.11119999999999997	1098.75	
288.15	0.8846	0.11539999999999995	1101.45	
288.15	0.8803	0.11970000000000003	1104.1499999999999	
288.15	0.8759	0.12409999999999999	1106.9	
288.15	0.8714	0.12860000000000005	1109.6	
288.15	0.8668	0.13319999999999999	1112.35	
288.15	0.862	0.138	1115.1	
288.15	0.8572	0.14280000000000004	1117.8	
288.15	0.8522000000000001	0.14779999999999993	1120.55	
288.15	0.847	0.15300000000000002	1123.25	
288.15	0.8418	0.1582	1126.0	
288.15	0.8364	0.16359999999999997	1128.7	
288.15	0.8308	0.16920000000000002	1131.5	
288.15	0.8251	0.17490000000000006	1134.25	
288.15	0.8193	0.18069999999999997	1137.05	
288.15	0.8132	0.18679999999999997	1139.8	
288.15	0.8069999999999999	0.19300000000000006	1142.6000000000001	
288.15	0.8007	0.19930000000000003	1145.3500000000001	
288.15	0.7941	0.20589999999999997	1148.15	
288.15	0.7873	0.2127	1150.9499999999998	
288.15	0.7803	0.2197	1153.7	
288.15	0.7731	0.2269	1156.5	
288.15	0.7657	0.23429999999999995	1159.25	
288.15	0.7581	0.2419	1162.0	
288.15	0.7501	0.2499	1164.8	
288.15	0.742	0.258	1167.5500000000002	
288.15	0.7335	0.26649999999999996	1170.3	
288.15	0.7248	0.2752	1173.05	
288.15	0.7157	0.2843	1175.8500000000001	
288.15	0.7063999999999999	0.2936000000000001	1178.6000000000001	
288.15	0.6967	0.3033	1181.35	
288.15	0.6866	0.3134	1184.15	
288.15	0.6762	0.3238	1186.9	
288.15	0.6653	0.3347	1189.65	
288.15	0.6541	0.3459	1192.35	
288.15	0.6424000000000001	0.3575999999999999	1195.1000000000001	
288.15	0.6302	0.3698	1197.8500000000001	
288.15	0.6174999999999999	0.38250000000000006	1200.6	
288.15	0.6043000000000001	0.39569999999999994	1203.35	
288.15	0.5905	0.4095	1206.1	
288.15	0.5761000000000001	0.42389999999999994	1208.85	
288.15	0.5609999999999999	0.43900000000000006	1211.6	
288.15	0.5453	0.4547	1214.25	
288.15	0.5287999999999999	0.47120000000000006	1216.9	
288.15	0.5115000000000001	0.48849999999999993	1219.55	
288.15	0.49329999999999996	0.5067	1222.2	
288.15	0.47430000000000005	0.5257	1224.85	
288.15	0.45420000000000005	0.5458	1227.5	
288.15	0.43310000000000004	0.5669	1230.15	
288.15	0.41080000000000005	0.5892	1232.8	
288.15	0.3872	0.6128	1235.45	
288.15	0.36219999999999997	0.6378	1238.1	
288.15	0.3358	0.6642	1240.75	
288.15	0.3077	0.6923	1243.4	
288.15	0.27790000000000004	0.7221	1246.0	
288.15	0.246	0.754	1248.65	
288.15	0.21199999999999997	0.788	1251.3000000000002	
288.15	0.17559999999999998	0.8244	1253.85	
288.15	0.13649999999999995	0.8635	1256.45	
288.15	0.09450000000000003	0.9055	1259.0	
288.15	0.04910000000000003	0.9509	1261.6000000000001	
288.15	0.0	1.0	1264.15	
293.15	1.0	0.0	998.2299999999999	
293.15	0.998	0.0020000000000000018	1000.5999999999999	
293.15	0.996	0.0040000000000000036	1002.9999999999999	
293.15	0.994	0.006000000000000005	1005.4000000000001	
293.15	0.9919	0.008099999999999996	1007.8000000000001	
293.15	0.9898	0.010199999999999987	1010.1500000000001	
293.15	0.9877	0.012299999999999978	1012.5500000000001	
293.15	0.9855	0.014499999999999957	1014.95	
293.15	0.9833	0.016700000000000048	1017.3000000000001	
293.15	0.981	0.019000000000000017	1019.7	
293.15	0.9787	0.021299999999999986	1022.1	
293.15	0.9764	0.023599999999999954	1024.5500000000002	
293.15	0.974	0.026000000000000023	1027.05	
293.15	0.9716	0.02839999999999998	1029.55	
293.15	0.9691	0.03090000000000004	1032.0	
293.15	0.9666	0.033399999999999985	1034.5	
293.15	0.9641	0.03590000000000004	1036.95	
293.15	0.9615	0.03849999999999998	1039.45	
293.15	0.9588	0.041200000000000014	1041.9499999999998	
293.15	0.9561	0.04390000000000005	1044.4	
293.15	0.9534	0.046599999999999975	1046.8999999999999	
293.15	0.9506	0.0494	1049.5	
293.15	0.9477	0.05230000000000001	1052.05	
293.15	0.9448	0.05520000000000003	1054.65	
293.15	0.9418	0.05820000000000003	1057.1999999999998	
293.15	0.9388	0.06120000000000003	1059.8000000000002	
293.15	0.9357	0.06430000000000002	1062.4	
293.15	0.9325	0.0675	1064.95	
293.15	0.9293	0.07069999999999999	1067.55	
293.15	0.926	0.07399999999999995	1070.1000000000001	
293.15	0.9226	0.07740000000000002	1072.7	
293.15	0.9192	0.08079999999999998	1075.3500000000001	
293.15	0.9157	0.08430000000000004	1078.0	
293.15	0.9121	0.08789999999999998	1080.7	
293.15	0.9085	0.09150000000000003	1083.3500000000001	
293.15	0.9047000000000001	0.09529999999999994	1086.0	
293.15	0.9009	0.09909999999999997	1088.6499999999999	
293.15	0.897	0.10299999999999998	1091.3500000000001	
293.15	0.8929	0.10709999999999997	1094.0	
293.15	0.8888	0.11119999999999997	1096.6499999999999	
293.15	0.8846	0.11539999999999995	1099.3	
293.15	0.8803	0.11970000000000003	1102.0	
293.15	0.8759	0.12409999999999999	1104.7	
293.15	0.8714	0.12860000000000005	1107.3999999999999	
293.15	0.8668	0.13319999999999999	1110.1000000000001	
293.15	0.862	0.138	1112.8	
293.15	0.8572	0.14280000000000004	1115.5	
293.15	0.8522000000000001	0.14779999999999993	1118.2	
293.15	0.847	0.15300000000000002	1120.9	
293.15	0.8418	0.1582	1123.6	
293.15	0.8364	0.16359999999999997	1126.3000000000002	
293.15	0.8308	0.16920000000000002	1129.0500000000002	
293.15	0.8251	0.17490000000000006	1131.8	
293.15	0.8193	0.18069999999999997	1134.55	
293.15	0.8132	0.18679999999999997	1137.3	
293.15	0.8069999999999999	0.19300000000000006	1140.05	
293.15	0.8007	0.19930000000000003	1142.8	
293.15	0.7941	0.20589999999999997	1145.5500000000002	
293.15	0.7873	0.2127	1148.3000000000002	
293.15	0.7803	0.2197	1151.05	
293.15	0.7731	0.2269	1153.8	
293.15	0.7657	0.23429999999999995	1156.55	
293.15	0.7581	0.2419	1159.3	
293.15	0.7501	0.2499	1162.05	
293.15	0.742	0.258	1164.75	
293.15	0.7335	0.26649999999999996	1167.5	
293.15	0.7248	0.2752	1170.25	
293.15	0.7157	0.2843	1173.0	
293.15	0.7063999999999999	0.2936000000000001	1175.75	
293.15	0.6967	0.3033	1178.5	
293.15	0.6866	0.3134	1181.25	
293.15	0.6762	0.3238	1183.95	
293.15	0.6653	0.3347	1186.7	
293.15	0.6541	0.3459	1189.4	
293.15	0.6424000000000001	0.3575999999999999	1192.15	
293.15	0.6302	0.3698	1194.85	
293.15	0.6174999999999999	0.38250000000000006	1197.6	
293.15	0.6043000000000001	0.39569999999999994	1200.3	
293.15	0.5905	0.4095	1203.05	
293.15	0.5761000000000001	0.42389999999999994	1205.75	
293.15	0.5609999999999999	0.43900000000000006	1208.5	
293.15	0.5453	0.4547	1211.1499999999999	
293.15	0.5287999999999999	0.47120000000000006	1213.8	
293.15	0.5115000000000001	0.48849999999999993	1216.5	
293.15	0.49329999999999996	0.5067	1219.1499999999999	
293.15	0.47430000000000005	0.5257	1221.8	
293.15	0.45420000000000005	0.5458	1224.45	
293.15	0.43310000000000004	0.5669	1227.1000000000001	
293.15	0.41080000000000005	0.5892	1229.75	
293.15	0.3872	0.6128	1232.45	
293.15	0.36219999999999997	0.6378	1235.1000000000001	
293.15	0.3358	0.6642	1237.7	
293.15	0.3077	0.6923	1240.3500000000001	
293.15	0.27790000000000004	0.7221	1243.0	
293.15	0.246	0.754	1245.6000000000001	
293.15	0.21199999999999997	0.788	1248.25	
293.15	0.17559999999999998	0.8244	1250.8	
293.15	0.13649999999999995	0.8635	1253.35	
293.15	0.09450000000000003	0.9055	1255.9	
293.15	0.04910000000000003	0.9509	1258.5	
293.15	0.0	1.0	1261.08	
298.15	1.0	0.0	997.0799999999999	
298.15	0.998	0.0020000000000000018	999.4499999999999	
298.15	0.996	0.0040000000000000036	1001.8000000000001	
298.15	0.994	0.006000000000000005	1004.1500000000001	
298.15	0.9919	0.008099999999999996	1006.5500000000001	
298.15	0.9898	0.010199999999999987	1008.8999999999999	
298.15	0.9877	0.012299999999999978	1011.25	
298.15	0.9855	0.014499999999999957	1013.6	
298.15	0.9833	0.016700000000000048	1016.0	
298.15	0.981	0.019000000000000017	1018.3500000000001	
298.15	0.9787	0.021299999999999986	1020.6999999999999	
298.15	0.9764	0.023599999999999954	1023.15	
298.15	0.974	0.026000000000000023	1025.6000000000001	
298.15	0.9716	0.02839999999999998	1028.05	
298.15	0.9691	0.03090000000000004	1030.5500000000002	
298.15	0.9666	0.033399999999999985	1033.0	
298.15	0.9641	0.03590000000000004	1035.45	
298.15	0.9615	0.03849999999999998	1037.9	
298.15	0.9588	0.041200000000000014	1040.3500000000001	
298.15	0.9561	0.04390000000000005	1042.8	
298.15	0.9534	0.046599999999999975	1045.25	
298.15	0.9506	0.0494	1047.8	
298.15	0.9477	0.05230000000000001	1050.35	
298.15	0.9448	0.05520000000000003	1052.8999999999999	
298.15	0.9418	0.05820000000000003	1055.45	
298.15	0.9388	0.06120000000000003	1058.0	
298.15	0.9357	0.06430000000000002	1060.5500000000002	
298.15	0.9325	0.0675	1063.05	
298.15	0.9293	0.07069999999999999	1065.6000000000001	
298.15	0.926	0.07399999999999995	1068.1499999999999	
298.15	0.9226	0.07740000000000002	1070.7	
298.15	0.9192	0.08079999999999998	1073.3500000000001	
298.15	0.9157	0.08430000000000004	1076.0	
298.15	0.9121	0.08789999999999998	1078.6	
298.15	0.9085	0.09150000000000003	1081.25	
298.15	0.9047000000000001	0.09529999999999994	1083.9	
298.15	0.9009	0.09909999999999997	1086.55	
298.15	0.897	0.10299999999999998	1089.15	
298.15	0.8929	0.10709999999999997	1091.8000000000002	
298.15	0.8888	0.11119999999999997	1094.4499999999998	
298.15	0.8846	0.11539999999999995	1097.1	
298.15	0.8803	0.11970000000000003	1099.75	
298.15	0.8759	0.12409999999999999	1102.4	
298.15	0.8714	0.12860000000000005	1105.1	
298.15	0.8668	0.13319999999999999	1107.75	
298.15	0.862	0.138	1110.4	
298.15	0.8572	0.14280000000000004	1113.1	
298.15	0.8522000000000001	0.14779999999999993	1115.75	
298.15	0.847	0.15300000000000002	1118.4	
298.15	0.8418	0.1582	1121.1	
298.15	0.8364	0.16359999999999997	1123.75	
298.15	0.8308	0.16920000000000002	1126.5	
298.15	0.8251	0.17490000000000006	1129.2	
298.15	0.8193	0.18069999999999997	1131.95	
298.15	0.8132	0.18679999999999997	1134.6499999999999	
298.15	0.8069999999999999	0.19300000000000006	1137.3999999999999	
298.15	0.8007	0.19930000000000003	1140.15	
298.15	0.7941	0.20589999999999997	1142.85	
298.15	0.7873	0.2127	1145.6	
298.15	0.7803	0.2197	1148.35	
298.15	0.7731	0.2269	1151.05	
298.15	0.7657	0.23429999999999995	1153.8	
298.15	0.7581	0.2419	1156.55	
298.15	0.7501	0.2499	1159.25	
298.15	0.742	0.258	1162.0	
298.15	0.7335	0.26649999999999996	1164.75	
298.15	0.7248	0.2752	1167.45	
298.15	0.7157	0.2843	1170.1999999999998	
298.15	0.7063999999999999	0.2936000000000001	1172.95	
298.15	0.6967	0.3033	1175.65	
298.15	0.6866	0.3134	1178.3999999999999	
298.15	0.6762	0.3238	1181.1000000000001	
298.15	0.6653	0.3347	1183.8	
298.15	0.6541	0.3459	1186.5	
298.15	0.6424000000000001	0.3575999999999999	1189.25	
298.15	0.6302	0.3698	1191.95	
298.15	0.6174999999999999	0.38250000000000006	1194.65	
298.15	0.6043000000000001	0.39569999999999994	1197.35	
298.15	0.5905	0.4095	1200.05	
298.15	0.5761000000000001	0.42389999999999994	1202.75	
298.15	0.5609999999999999	0.43900000000000006	1205.4499999999998	
298.15	0.5453	0.4547	1208.1	
298.15	0.5287999999999999	0.47120000000000006	1210.75	
298.15	0.5115000000000001	0.48849999999999993	1213.4	
298.15	0.49329999999999996	0.5067	1216.0500000000002	
298.15	0.47430000000000005	0.5257	1218.6999999999998	
298.15	0.45420000000000005	0.5458	1221.35	
298.15	0.43310000000000004	0.5669	1224.0	
298.15	0.41080000000000005	0.5892	1226.65	
298.15	0.3872	0.6128	1229.35	
298.15	0.36219999999999997	0.6378	1232.0	
298.15	0.3358	0.6642	1234.6	
298.15	0.3077	0.6923	1237.25	
298.15	0.27790000000000004	0.7221	1239.85	
298.15	0.246	0.754	1242.5	
298.15	0.21199999999999997	0.788	1245.15	
298.15	0.17559999999999998	0.8244	1247.7	
298.15	0.13649999999999995	0.8635	1250.3	
298.15	0.09450000000000003	0.9055	1252.8999999999999	
298.15	0.04910000000000003	0.9509	1255.45	
298.15	0.0	1.0	1258.02	
303.15	1.0	0.0	996.58	
303.15	0.998	0.0020000000000000018	998.0	
303.15	0.996	0.0040000000000000036	1000.35	
303.15	0.994	0.006000000000000005	1002.6999999999999	
303.15	0.9919	0.008099999999999996	1005.05	
303.15	0.9898	0.010199999999999987	1007.35	
303.15	0.9877	0.012299999999999978	1009.7	
303.15	0.9855	0.014499999999999957	1012.0499999999998	
303.15	0.9833	0.016700000000000048	1014.4	
303.15	0.981	0.019000000000000017	1016.6999999999999	
303.15	0.9787	0.021299999999999986	1019.05	
303.15	0.9764	0.023599999999999954	1021.5000000000001	
303.15	0.974	0.026000000000000023	1023.9499999999999	
303.15	0.9716	0.02839999999999998	1026.4	
303.15	0.9691	0.03090000000000004	1028.8500000000001	
303.15	0.9666	0.033399999999999985	1031.3000000000002	
303.15	0.9641	0.03590000000000004	1033.7	
303.15	0.9615	0.03849999999999998	1036.1499999999999	
303.15	0.9588	0.041200000000000014	1038.6	
303.15	0.9561	0.04390000000000005	1041.05	
303.15	0.9534	0.046599999999999975	1043.5	
303.15	0.9506	0.0494	1046.0	
303.15	0.9477	0.05230000000000001	1048.5	
303.15	0.9448	0.05520000000000003	1051.0	
303.15	0.9418	0.05820000000000003	1053.5	
303.15	0.9388	0.06120000000000003	1056.05	
303.15	0.9357	0.06430000000000002	1058.5500000000002	
303.15	0.9325	0.0675	1061.05	
303.15	0.9293	0.07069999999999999	1063.55	
303.15	0.926	0.07399999999999995	1066.05	
303.15	0.9226	0.07740000000000002	1068.5500000000002	
303.15	0.9192	0.08079999999999998	1071.1999999999998	
303.15	0.9157	0.08430000000000004	1073.8000000000002	
303.15	0.9121	0.08789999999999998	1076.4499999999998	
303.15	0.9085	0.09150000000000003	1079.05	
303.15	0.9047000000000001	0.09529999999999994	1081.65	
303.15	0.9009	0.09909999999999997	1084.3	
303.15	0.897	0.10299999999999998	1086.9	
303.15	0.8929	0.10709999999999997	1089.55	
303.15	0.8888	0.11119999999999997	1092.1499999999999	
303.15	0.8846	0.11539999999999995	1094.75	
303.15	0.8803	0.11970000000000003	1097.3999999999999	
303.15	0.8759	0.12409999999999999	1100.05	
303.15	0.8714	0.12860000000000005	1102.6499999999999	
303.15	0.8668	0.13319999999999999	1105.3	
303.15	0.862	0.138	1107.95	
303.15	0.8572	0.14280000000000004	1110.55	
303.15	0.8522000000000001	0.14779999999999993	1113.2	
303.15	0.847	0.15300000000000002	1115.8	
303.15	0.8418	0.1582	1118.45	
303.15	0.8364	0.16359999999999997	1121.1	
303.15	0.8308	0.16920000000000002	1123.8	
303.15	0.8251	0.17490000000000006	1126.5	
303.15	0.8193	0.18069999999999997	1129.25	
303.15	0.8132	0.18679999999999997	1131.95	
303.15	0.8069999999999999	0.19300000000000006	1134.7	
303.15	0.8007	0.19930000000000003	1137.3999999999999	
303.15	0.7941	0.20589999999999997	1140.1	
303.15	0.7873	0.2127	1142.85	
303.15	0.7803	0.2197	1145.5500000000002	
303.15	0.7731	0.2269	1148.3000000000002	
303.15	0.7657	0.23429999999999995	1151.0	
303.15	0.7581	0.2419	1153.75	
303.15	0.7501	0.2499	1156.5	
303.15	0.742	0.258	1159.25	
303.15	0.7335	0.26649999999999996	1161.95	
303.15	0.7248	0.2752	1164.7	
303.15	0.7157	0.2843	1167.45	
303.15	0.7063999999999999	0.2936000000000001	1170.1999999999998	
303.15	0.6967	0.3033	1172.9	
303.15	0.6866	0.3134	1175.65	
303.15	0.6762	0.3238	1178.3	
303.15	0.6653	0.3347	1181.0	
303.15	0.6541	0.3459	1183.65	
303.15	0.6424000000000001	0.3575999999999999	1186.35	
303.15	0.6302	0.3698	1189.0	
303.15	0.6174999999999999	0.38250000000000006	1191.7	
303.15	0.6043000000000001	0.39569999999999994	1194.35	
303.15	0.5905	0.4095	1197.05	
303.15	0.5761000000000001	0.42389999999999994	1199.7	
303.15	0.5609999999999999	0.43900000000000006	1202.3999999999999	
303.15	0.5453	0.4547	1205.05	
303.15	0.5287999999999999	0.47120000000000006	1207.7	
303.15	0.5115000000000001	0.48849999999999993	1210.3500000000001	
303.15	0.49329999999999996	0.5067	1213.0	
303.15	0.47430000000000005	0.5257	1215.6499999999999	
303.15	0.45420000000000005	0.5458	1218.3	
303.15	0.43310000000000004	0.5669	1220.95	
303.15	0.41080000000000005	0.5892	1223.6	
303.15	0.3872	0.6128	1226.25	
303.15	0.36219999999999997	0.6378	1228.9	
303.15	0.3358	0.6642	1231.5	
303.15	0.3077	0.6923	1234.1	
303.15	0.27790000000000004	0.7221	1236.6999999999998	
303.15	0.246	0.754	1239.3000000000002	
303.15	0.21199999999999997	0.788	1241.9	
303.15	0.17559999999999998	0.8244	1244.5	
303.15	0.13649999999999995	0.8635	1247.1000000000001	
303.15	0.09450000000000003	0.9055	1249.75	
303.15	0.04910000000000003	0.9509	1252.3500000000001	
303.15	0.0	1.0	1254.95	
