Measured thermophysical data. Diffusion Coefficients for the Binary System Glycerol + Water at 25 Â°C. A Velocity Correlation Study
Source: 10.1021/je049917u
Compound cw: water, , InChI=1S/H2O/h1H2
Compound cc: glycerol, , InChI=1S/C3H8O3/c4-1-3(6)2-5/h3-6H,1-2H2

System: water + glycerol
Property: Self diffusion coefficient, m2/s of water; method: experiment
Property: Self diffusion coefficient, m2/s of glycerol; method: experiment
Temperature, K	Mole fraction of water	Mole fraction of glycerol	Self diffusion coefficient, m2/s of water	uncertainty	Self diffusion coefficient, m2/s of glycerol	uncertainty
298.15	0.8731	0.1269	6.700000000000001e-10		2.5e-10	
298.15	0.784	0.21599999999999997	3.8000000000000003e-10		1.48e-10	
298.15	0.6458999999999999	0.3541000000000001	2.1e-10		9.3e-11	
298.15	0.5711999999999999	0.42880000000000007	1.5900000000000002e-10		7.5e-11	
298.15	0.4597	0.5403	1.1200000000000001e-10		4.8e-11	
298.15	0.28500000000000003	0.715	5.4e-11		2.2e-11	
298.15	0.19720000000000004	0.8028	3.9e-11		1.55e-11	
298.15	0.08999999999999997	0.91	2.4e-11		1.13e-11	
298.15	0.0	1.0	1.4000000000000002e-11		2.5000000000000003e-12	
