Measured thermophysical data. Diffusion Coefficients of Methanol and Water and the Mutual Diffusion Coefficient inMethanol-Water Solutions at 278 and 298 K
Source: 10.1021/j100270a039
Compound cw: water, , InChI=1S/H2O/h1H2
Compound cc: methanol, , InChI=1S/CH4O/c1-2/h2H,1H3

System: water + methanol
Property: Self diffusion coefficient, m2/s of water; method: experiment
Property: Self diffusion coefficient, m2/s of methanol; method: experiment
Temperature, K	Mole fraction of water	Mole fraction of methanol	Self diffusion coefficient, m2/s of water	uncertainty	Self diffusion coefficient, m2/s of methanol	uncertainty
278.15	1.0	0.0	1.298e-09		8.810000000000001e-10	
278.15	0.95	0.050000000000000044	1.254e-09		7.09e-10	
278.15	0.9	0.09999999999999998	8.510000000000001e-10		6.24e-10	
278.15	0.8	0.19999999999999996	6.860000000000001e-10		5.76e-10	
278.15	0.7	0.30000000000000004	6.590000000000001e-10		5.66e-10	
278.15	0.6	0.4	6.88e-10		6.310000000000001e-10	
278.15	0.5	0.5	7.41e-10		7.19e-10	
278.15	0.4	0.6	8.230000000000001e-10		8.25e-10	
278.15	0.30000000000000004	0.7	9.180000000000001e-10		9.69e-10	
278.15	0.19999999999999996	0.8	1.067e-09		1.152e-09	
278.15	0.09999999999999998	0.9	1.186e-09		1.3750000000000001e-09	
298.15	1.0	0.0	2.275e-09		1.563e-09	
298.15	0.95	0.050000000000000044	1.889e-09		1.3460000000000001e-09	
298.15	0.9	0.09999999999999998	1.656e-09		1.205e-09	
298.15	0.8	0.19999999999999996	1.3740000000000002e-09		1.0780000000000002e-09	
298.15	0.7	0.30000000000000004	1.273e-09		1.068e-09	
298.15	0.6	0.4	1.285e-09		1.1290000000000001e-09	
298.15	0.5	0.5	1.341e-09		1.2250000000000002e-09	
298.15	0.4	0.6	1.4310000000000001e-09		1.3690000000000001e-09	
298.15	0.30000000000000004	0.7	1.5660000000000002e-09		1.517e-09	
298.15	0.19999999999999996	0.8	1.6980000000000001e-09		1.718e-09	
298.15	0.09999999999999998	0.9	1.912e-09		2.0490000000000003e-09	
298.15	0.0	1.0	2.19e-09		2.3690000000000004e-09	
