Measured thermophysical data. Densities and Viscosities of Methanol-Water Mixtures.
Source: 10.1021/je60011a015
Compound cw: water, , InChI=1S/H2O/h1H2
Compound cc: methanol, , InChI=1S/CH4O/c1-2/h2H,1H3

System: water + methanol
Property: Mass density, kg/m3; method: experiment
Temperature, K	Mole fraction of water	Mole fraction of methanol	Mass density, kg/m3	uncertainty
298.15	1.0	0.0	997.1	
298.15	0.9412	0.05879999999999996	980.1999999999999	
298.15	0.8767	0.12329999999999997	964.7	
298.15	0.8057	0.19430000000000003	949.2	
298.15	0.7273000000000001	0.27269999999999994	931.5	
298.15	0.6401	0.3599	911.9000000000001	
298.15	0.5424	0.4576	890.4	
298.15	0.4325	0.5675	867.3	
298.15	0.30779999999999996	0.6922	842.6	
298.15	0.16500000000000004	0.835	815.2	
298.15	0.08560000000000001	0.9144	800.6	
298.15	0.0	1.0	786.9000000000001	
303.15	1.0	0.0	995.7	
303.15	0.9412	0.05879999999999996	978.6	
303.15	0.8767	0.12329999999999997	962.8	
303.15	0.8057	0.19430000000000003	946.6999999999999	
303.15	0.7273000000000001	0.27269999999999994	928.5	
303.15	0.6401	0.3599	909.5999999999999	
303.15	0.5424	0.4576	887.0	
303.15	0.4325	0.5675	863.7	
303.15	0.30779999999999996	0.6922	838.0999999999999	
303.15	0.16500000000000004	0.835	811.0	
303.15	0.08560000000000001	0.9144	796.2	
303.15	0.0	1.0	781.9000000000001	
308.15	1.0	0.0	994.1	
308.15	0.9412	0.05879999999999996	976.8	
308.15	0.8767	0.12329999999999997	960.6	
308.15	0.8057	0.19430000000000003	944.0	
308.15	0.7273000000000001	0.27269999999999994	925.4	
308.15	0.6401	0.3599	906.0	
308.15	0.5424	0.4576	883.5	
308.15	0.4325	0.5675	859.5	
308.15	0.30779999999999996	0.6922	833.3000000000001	
308.15	0.16500000000000004	0.835	805.6999999999999	
308.15	0.08560000000000001	0.9144	791.1	
308.15	0.0	1.0	777.1	
313.15	1.0	0.0	992.3	
313.15	0.9412	0.05879999999999996	974.7	
313.15	0.8767	0.12329999999999997	958.2	
313.15	0.8057	0.19430000000000003	941.0	
313.15	0.7273000000000001	0.27269999999999994	922.0	
313.15	0.6401	0.3599	902.2	
313.15	0.5424	0.4576	879.5	
313.15	0.4325	0.5675	855.3	
313.15	0.30779999999999996	0.6922	829.0999999999999	
313.15	0.16500000000000004	0.835	801.4	
313.15	0.08560000000000001	0.9144	786.4	
313.15	0.0	1.0	772.3	
323.15	1.0	0.0	988.1	
323.15	0.9412	0.05879999999999996	970.0	
323.15	0.8767	0.12329999999999997	952.6	
323.15	0.8057	0.19430000000000003	935.4	
323.15	0.7273000000000001	0.27269999999999994	914.8	
323.15	0.6401	0.3599	894.4	
323.15	0.5424	0.4576	870.9	
323.15	0.4325	0.5675	846.5	
323.15	0.30779999999999996	0.6922	820.4	
323.15	0.16500000000000004	0.835	792.8	
323.15	0.08560000000000001	0.9144	777.5	
323.15	0.0	1.0	762.7	
