Measured thermophysical data. Viscosity of Glycerol and Its Aqueous Solutions
Source: 10.1021/ie50501a040
Compound cw: water, , InChI=1S/H2O/h1H2
Compound cc: glycerol, , InChI=1S/C3H8O3/c4-1-3(6)2-5/h3-6H,1-2H2

System: water + glycerol
Property: Viscosity, Pa*s; method: experiment
Temperature, K	Mole fraction of water	Mole fraction of glycerol	Viscosity, Pa*s	uncertainty
273.15	1.0	0.0	0.001792	
273.15	0.98	0.020000000000000018	0.00244	
273.15	0.95	0.050000000000000044	0.00344	
273.15	0.92	0.07999999999999996	0.00514	
273.15	0.88	0.12	0.00825	
273.15	0.84	0.16000000000000003	0.0146	
273.15	0.77	0.22999999999999998	0.0299	
273.15	0.73	0.27	0.045700000000000005	
273.15	0.72	0.28	0.0555	
273.15	0.69	0.31000000000000005	0.076	
273.15	0.63	0.37	0.132	
273.15	0.56	0.43999999999999995	0.255	
273.15	0.47	0.53	0.54	
273.15	0.36	0.64	1.31	
273.15	0.33999999999999997	0.66	1.59	
273.15	0.31000000000000005	0.69	1.95	
273.15	0.28	0.72	2.4	
273.15	0.25	0.75	2.93	
273.15	0.20999999999999996	0.79	3.69	
273.15	0.18000000000000005	0.82	4.6000000000000005	
273.15	0.14	0.86	5.7700000000000005	
273.15	0.08999999999999997	0.91	7.37	
273.15	0.050000000000000044	0.95	9.42	
273.15	0.0	1.0	12.07	
283.15	1.0	0.0	0.0013080000000000001	
283.15	0.98	0.020000000000000018	0.00174	
283.15	0.95	0.050000000000000044	0.0024100000000000002	
283.15	0.92	0.07999999999999996	0.0034900000000000005	
283.15	0.88	0.12	0.005370000000000001	
283.15	0.84	0.16000000000000003	0.00901	
283.15	0.77	0.22999999999999998	0.0174	
283.15	0.73	0.27	0.0253	
283.15	0.72	0.28	0.0299	
283.15	0.69	0.31000000000000005	0.0388	
283.15	0.63	0.37	0.06520000000000001	
283.15	0.56	0.43999999999999995	0.116	
283.15	0.47	0.53	0.223	
283.15	0.36	0.64	0.498	
283.15	0.33999999999999997	0.66	0.592	
283.15	0.31000000000000005	0.69	0.729	
283.15	0.28	0.72	0.86	
283.15	0.25	0.75	1.04	
283.15	0.20999999999999996	0.79	1.27	
283.15	0.18000000000000005	0.82	1.585	
283.15	0.14	0.86	1.95	
283.15	0.08999999999999997	0.91	2.46	
283.15	0.050000000000000044	0.95	3.09	
283.15	0.0	1.0	3.9	
293.15	1.0	0.0	0.0010049999999999998	
293.15	0.98	0.020000000000000018	0.0013100000000000002	
293.15	0.95	0.050000000000000044	0.00176	
293.15	0.92	0.07999999999999996	0.0025	
293.15	0.88	0.12	0.00372	
293.15	0.84	0.16000000000000003	0.006	
293.15	0.77	0.22999999999999998	0.0108	
293.15	0.73	0.27	0.0152	
293.15	0.72	0.28	0.0177	
293.15	0.69	0.31000000000000005	0.0225	
293.15	0.63	0.37	0.035500000000000004	
293.15	0.56	0.43999999999999995	0.0601	
293.15	0.47	0.53	0.109	
293.15	0.36	0.64	0.219	
293.15	0.33999999999999997	0.66	0.259	
293.15	0.31000000000000005	0.69	0.31	
293.15	0.28	0.72	0.367	
293.15	0.25	0.75	0.437	
293.15	0.20999999999999996	0.79	0.523	
293.15	0.18000000000000005	0.82	0.624	
293.15	0.14	0.86	0.765	
293.15	0.08999999999999997	0.91	0.9390000000000001	
293.15	0.050000000000000044	0.95	1.1500000000000001	
293.15	0.0	1.0	1.412	
303.15	1.0	0.0	0.0008007	
303.15	0.98	0.020000000000000018	0.00103	
303.15	0.95	0.050000000000000044	0.00135	
303.15	0.92	0.07999999999999996	0.0018700000000000001	
303.15	0.88	0.12	0.00272	
303.15	0.84	0.16000000000000003	0.00421	
303.15	0.77	0.22999999999999998	0.00719	
303.15	0.73	0.27	0.00985	
303.15	0.72	0.28	0.011300000000000001	
303.15	0.69	0.31000000000000005	0.0141	
303.15	0.63	0.37	0.0212	
303.15	0.56	0.43999999999999995	0.0339	
303.15	0.47	0.53	0.058	
303.15	0.36	0.64	0.109	
303.15	0.33999999999999997	0.66	0.126	
303.15	0.31000000000000005	0.69	0.147	
303.15	0.28	0.72	0.17200000000000001	
303.15	0.25	0.75	0.202	
303.15	0.20999999999999996	0.79	0.23700000000000002	
303.15	0.18000000000000005	0.82	0.281	
303.15	0.14	0.86	0.34	
303.15	0.08999999999999997	0.91	0.40900000000000003	
303.15	0.050000000000000044	0.95	0.5	
303.15	0.0	1.0	0.612	
313.15	1.0	0.0	0.000656	
313.15	0.98	0.020000000000000018	0.000826	
313.15	0.95	0.050000000000000044	0.00107	
313.15	0.92	0.07999999999999996	0.00146	
313.15	0.88	0.12	0.00207	
313.15	0.84	0.16000000000000003	0.0031000000000000003	
313.15	0.77	0.22999999999999998	0.00508	
313.15	0.73	0.27	0.0068	
313.15	0.72	0.28	0.007730000000000001	
313.15	0.69	0.31000000000000005	0.0094	
313.15	0.63	0.37	0.0136	
313.15	0.56	0.43999999999999995	0.020800000000000003	
313.15	0.47	0.53	0.0335	
313.15	0.36	0.64	0.06	
313.15	0.33999999999999997	0.66	0.0681	
313.15	0.31000000000000005	0.69	0.0783	
313.15	0.28	0.72	0.089	
313.15	0.25	0.75	0.105	
313.15	0.20999999999999996	0.79	0.121	
313.15	0.18000000000000005	0.82	0.14200000000000002	
313.15	0.14	0.86	0.166	
313.15	0.08999999999999997	0.91	0.196	
313.15	0.050000000000000044	0.95	0.23500000000000001	
313.15	0.0	1.0	0.28400000000000003	
323.15	1.0	0.0	0.0005494	
323.15	0.98	0.020000000000000018	0.00068	
323.15	0.95	0.050000000000000044	0.000879	
323.15	0.92	0.07999999999999996	0.00116	
323.15	0.88	0.12	0.0016200000000000001	
323.15	0.84	0.16000000000000003	0.00237	
323.15	0.77	0.22999999999999998	0.00376	
323.15	0.73	0.27	0.004889999999999999	
323.15	0.72	0.28	0.0055	
323.15	0.69	0.31000000000000005	0.00661	
323.15	0.63	0.37	0.00925	
323.15	0.56	0.43999999999999995	0.0136	
323.15	0.47	0.53	0.0212	
323.15	0.36	0.64	0.035500000000000004	
323.15	0.33999999999999997	0.66	0.039799999999999995	
323.15	0.31000000000000005	0.69	0.0448	
323.15	0.28	0.72	0.051500000000000004	
323.15	0.25	0.75	0.0584	
323.15	0.20999999999999996	0.79	0.067	
323.15	0.18000000000000005	0.82	0.0778	
323.15	0.14	0.86	0.0889	
323.15	0.08999999999999997	0.91	0.10400000000000001	
323.15	0.050000000000000044	0.95	0.122	
323.15	0.0	1.0	0.14200000000000002	
333.15	1.0	0.0	0.0004688	
333.15	0.98	0.020000000000000018	0.000575	
333.15	0.95	0.050000000000000044	0.000731	
333.15	0.92	0.07999999999999996	0.0009559999999999999	
333.15	0.88	0.12	0.0013000000000000002	
333.15	0.84	0.16000000000000003	0.00186	
333.15	0.77	0.22999999999999998	0.00285	
333.15	0.73	0.27	0.00366	
333.15	0.72	0.28	0.00409	
333.15	0.69	0.31000000000000005	0.004860000000000001	
333.15	0.63	0.37	0.00661	
333.15	0.56	0.43999999999999995	0.00942	
333.15	0.47	0.53	0.014199999999999999	
333.15	0.36	0.64	0.0225	
333.15	0.33999999999999997	0.66	0.0251	
333.15	0.31000000000000005	0.69	0.028	
333.15	0.28	0.72	0.0316	
333.15	0.25	0.75	0.0354	
333.15	0.20999999999999996	0.79	0.0399	
333.15	0.18000000000000005	0.82	0.0454	
333.15	0.14	0.86	0.0519	
333.15	0.08999999999999997	0.91	0.0598	
333.15	0.050000000000000044	0.95	0.0691	
333.15	0.0	1.0	0.0813	
343.15	1.0	0.0	0.0004061	
343.15	0.98	0.020000000000000018	0.0005	
343.15	0.95	0.050000000000000044	0.000635	
343.15	0.92	0.07999999999999996	0.000816	
343.15	0.88	0.12	0.00109	
343.15	0.84	0.16000000000000003	0.0015300000000000001	
343.15	0.77	0.22999999999999998	0.00229	
343.15	0.73	0.27	0.0029100000000000003	
343.15	0.72	0.28	0.0032300000000000002	
343.15	0.69	0.31000000000000005	0.00378	
343.15	0.63	0.37	0.00501	
343.15	0.56	0.43999999999999995	0.006940000000000001	
343.15	0.47	0.53	0.01	
343.15	0.36	0.64	0.0155	
343.15	0.33999999999999997	0.66	0.0171	
343.15	0.31000000000000005	0.69	0.019	
343.15	0.28	0.72	0.0212	
343.15	0.25	0.75	0.023600000000000003	
343.15	0.20999999999999996	0.79	0.0264	
343.15	0.18000000000000005	0.82	0.0297	
343.15	0.14	0.86	0.033600000000000005	
343.15	0.08999999999999997	0.91	0.0385	
343.15	0.050000000000000044	0.95	0.0436	
343.15	0.0	1.0	0.0506	
